<?xml version="1.0" encoding="UTF-8"?>

<!-- generated on Saturday 16 September 2017 10:42:11 PM IST by Netedit Version 0.30.0
<?xml version="1.0" encoding="UTF-8"?>

<configuration xmlns:xsi="http://www.w3.org/2001/XMLSchema-instance" xsi:noNamespaceSchemaLocation="http://sumo.dlr.de/xsd/netconvertConfiguration.xsd">

    <input>
        <sumo-net-file value="/home/aelab/omnet/omnetpp-5.1.1/samples/workspace/myVeins/examples/veins2/sumo1.net.xml"/>
    </input>

    <output>
        <output-file value="/home/aelab/omnet/omnetpp-5.1.1/samples/workspace/myVeins/examples/veins2/sumo1.net.xml"/>
    </output>

    <processing>
        <no-turnarounds value="true"/>
        <offset.disable-normalization value="true"/>
        <lefthand value="false"/>
        <junctions.corner-detail value="0"/>
        <rectangular-lane-cut value="false"/>
    </processing>

</configuration>
-->

<net version="0.27" xmlns:xsi="http://www.w3.org/2001/XMLSchema-instance" xsi:noNamespaceSchemaLocation="http://sumo.dlr.de/xsd/net_file.xsd">

    <location netOffset="0.00,0.00" convBoundary="-300.00,100.00,900.00,500.00" origBoundary="-10000000000.00,-10000000000.00,10000000000.00,10000000000.00" projParameter="!"/>

    <edge id=":c_0" function="internal">
        <lane id=":c_0_0" index="0" speed="20.00" length="7.66" shape="595.05,308.05 594.86,306.69 594.27,305.73 593.31,305.14 591.95,304.95"/>
    </edge>
    <edge id=":c_1" function="internal">
        <lane id=":c_1_0" index="0" speed="20.00" length="16.10" shape="595.05,308.05 595.05,291.95"/>
    </edge>
    <edge id=":c_2" function="internal">
        <lane id=":c_2_0" index="0" speed="20.00" length="18.30" shape="595.05,308.05 595.86,302.36 598.30,298.30 602.36,295.86 608.05,295.05"/>
    </edge>
    <edge id=":c_3" function="internal">
        <lane id=":c_3_0" index="0" speed="20.00" length="9.64" shape="595.05,308.05 597.53,304.34 600.00,303.10 602.48,304.34 604.95,308.05"/>
    </edge>
    <edge id=":c_4" function="internal">
        <lane id=":c_4_0" index="0" speed="20.00" length="7.66" shape="598.35,308.05 597.95,305.25 596.75,303.25 594.75,302.05 591.95,301.65"/>
    </edge>
    <edge id=":c_5" function="internal">
        <lane id=":c_5_0" index="0" speed="20.00" length="16.10" shape="598.35,308.05 598.35,291.95"/>
    </edge>
    <edge id=":c_6" function="internal">
        <lane id=":c_6_0" index="0" speed="20.00" length="18.30" shape="598.35,308.05 598.96,303.81 600.78,300.77 603.81,298.96 608.05,298.35"/>
    </edge>
    <edge id=":c_7" function="internal">
        <lane id=":c_7_0" index="0" speed="20.00" length="9.64" shape="598.35,308.05 599.18,306.81 600.00,306.40 600.83,306.81 601.65,308.05"/>
    </edge>
    <edge id=":c_8" function="internal">
        <lane id=":c_8_0" index="0" speed="20.00" length="7.66" shape="608.05,304.95 606.69,305.14 605.73,305.72 605.14,306.69 604.95,308.05"/>
    </edge>
    <edge id=":c_9" function="internal">
        <lane id=":c_9_0" index="0" speed="20.00" length="16.10" shape="608.05,304.95 591.95,304.95"/>
    </edge>
    <edge id=":c_10" function="internal">
        <lane id=":c_10_0" index="0" speed="20.00" length="18.30" shape="608.05,304.95 602.36,304.14 598.30,301.70 595.86,297.64 595.05,291.95"/>
    </edge>
    <edge id=":c_11" function="internal">
        <lane id=":c_11_0" index="0" speed="20.00" length="9.64" shape="608.05,304.95 604.34,302.47 603.10,300.00 604.34,297.52 608.05,295.05"/>
    </edge>
    <edge id=":c_12" function="internal">
        <lane id=":c_12_0" index="0" speed="20.00" length="7.66" shape="608.05,301.65 605.25,302.05 603.25,303.25 602.05,305.25 601.65,308.05"/>
    </edge>
    <edge id=":c_13" function="internal">
        <lane id=":c_13_0" index="0" speed="20.00" length="16.10" shape="608.05,301.65 591.95,301.65"/>
    </edge>
    <edge id=":c_14" function="internal">
        <lane id=":c_14_0" index="0" speed="20.00" length="18.30" shape="608.05,301.65 603.81,301.04 600.77,299.22 598.96,296.19 598.35,291.95"/>
    </edge>
    <edge id=":c_15" function="internal">
        <lane id=":c_15_0" index="0" speed="20.00" length="9.64" shape="608.05,301.65 606.81,300.83 606.40,300.00 606.81,299.18 608.05,298.35"/>
    </edge>
    <edge id=":c_16" function="internal">
        <lane id=":c_16_0" index="0" speed="20.00" length="7.66" shape="604.95,291.95 605.14,293.31 605.73,294.27 606.69,294.86 608.05,295.05"/>
    </edge>
    <edge id=":c_17" function="internal">
        <lane id=":c_17_0" index="0" speed="20.00" length="16.10" shape="604.95,291.95 604.95,308.05"/>
    </edge>
    <edge id=":c_18" function="internal">
        <lane id=":c_18_0" index="0" speed="20.00" length="18.30" shape="604.95,291.95 604.14,297.64 601.70,301.70 597.64,304.14 591.95,304.95"/>
    </edge>
    <edge id=":c_19" function="internal">
        <lane id=":c_19_0" index="0" speed="20.00" length="9.64" shape="604.95,291.95 602.47,295.66 600.00,296.90 597.52,295.66 595.05,291.95"/>
    </edge>
    <edge id=":c_20" function="internal">
        <lane id=":c_20_0" index="0" speed="20.00" length="7.66" shape="601.65,291.95 602.05,294.75 603.25,296.75 605.25,297.95 608.05,298.35"/>
    </edge>
    <edge id=":c_21" function="internal">
        <lane id=":c_21_0" index="0" speed="20.00" length="16.10" shape="601.65,291.95 601.65,308.05"/>
    </edge>
    <edge id=":c_22" function="internal">
        <lane id=":c_22_0" index="0" speed="20.00" length="18.30" shape="601.65,291.95 601.04,296.19 599.22,299.23 596.19,301.04 591.95,301.65"/>
    </edge>
    <edge id=":c_23" function="internal">
        <lane id=":c_23_0" index="0" speed="20.00" length="9.64" shape="601.65,291.95 600.82,293.19 600.00,293.60 599.17,293.19 598.35,291.95"/>
    </edge>
    <edge id=":c_24" function="internal">
        <lane id=":c_24_0" index="0" speed="20.00" length="7.66" shape="591.95,295.05 593.31,294.86 594.27,294.28 594.86,293.31 595.05,291.95"/>
    </edge>
    <edge id=":c_25" function="internal">
        <lane id=":c_25_0" index="0" speed="20.00" length="16.10" shape="591.95,295.05 608.05,295.05"/>
    </edge>
    <edge id=":c_26" function="internal">
        <lane id=":c_26_0" index="0" speed="20.00" length="18.30" shape="591.95,295.05 597.64,295.86 601.70,298.30 604.14,302.36 604.95,308.05"/>
    </edge>
    <edge id=":c_27" function="internal">
        <lane id=":c_27_0" index="0" speed="20.00" length="9.64" shape="591.95,295.05 595.66,297.53 596.90,300.00 595.66,302.48 591.95,304.95"/>
    </edge>
    <edge id=":c_28" function="internal">
        <lane id=":c_28_0" index="0" speed="20.00" length="7.66" shape="591.95,298.35 594.75,297.95 596.75,296.75 597.95,294.75 598.35,291.95"/>
    </edge>
    <edge id=":c_29" function="internal">
        <lane id=":c_29_0" index="0" speed="20.00" length="16.10" shape="591.95,298.35 608.05,298.35"/>
    </edge>
    <edge id=":c_30" function="internal">
        <lane id=":c_30_0" index="0" speed="20.00" length="18.30" shape="591.95,298.35 596.19,298.96 599.23,300.78 601.04,303.81 601.65,308.05"/>
    </edge>
    <edge id=":c_31" function="internal">
        <lane id=":c_31_0" index="0" speed="20.00" length="9.64" shape="591.95,298.35 593.19,299.17 593.60,300.00 593.19,300.82 591.95,301.65"/>
    </edge>
    <edge id=":e_0" function="internal">
        <lane id=":e_0_0" index="0" speed="20.00" length="9.64" shape="900.00,295.05 903.71,297.53 904.95,300.00 903.71,302.48 900.00,304.95"/>
        <lane id=":e_0_1" index="1" speed="20.00" length="9.64" shape="900.00,298.35 901.24,299.17 901.65,300.00 901.24,300.82 900.00,301.65"/>
    </edge>
    <edge id=":n_0" function="internal">
        <lane id=":n_0_0" index="0" speed="20.00" length="9.64" shape="604.95,500.00 602.47,503.71 600.00,504.95 597.52,503.71 595.05,500.00"/>
        <lane id=":n_0_1" index="1" speed="20.00" length="9.64" shape="601.65,500.00 600.82,501.24 600.00,501.65 599.17,501.24 598.35,500.00"/>
    </edge>
    <edge id=":s_0" function="internal">
        <lane id=":s_0_0" index="0" speed="20.00" length="9.64" shape="595.05,100.00 597.53,96.29 600.00,95.05 602.48,96.29 604.95,100.00"/>
        <lane id=":s_0_1" index="1" speed="20.00" length="9.64" shape="598.35,100.00 599.18,98.76 600.00,98.35 600.83,98.76 601.65,100.00"/>
    </edge>
    <edge id=":w_0" function="internal">
        <lane id=":w_0_0" index="0" speed="20.00" length="9.64" shape="300.00,304.95 296.29,302.47 295.05,300.00 296.29,297.52 300.00,295.05"/>
        <lane id=":w_0_1" index="1" speed="20.00" length="9.64" shape="300.00,301.65 298.76,300.83 298.35,300.00 298.76,299.18 300.00,298.35"/>
    </edge>

    <edge id="ce" from="c" to="e" priority="1">
        <lane id="ce_0" index="0" speed="20.00" length="291.95" shape="608.05,295.05 900.00,295.05"/>
        <lane id="ce_1" index="1" speed="20.00" length="291.95" shape="608.05,298.35 900.00,298.35"/>
    </edge>
    <edge id="cn" from="c" to="n" priority="1">
        <lane id="cn_0" index="0" speed="20.00" length="191.95" shape="604.95,308.05 604.95,500.00"/>
        <lane id="cn_1" index="1" speed="20.00" length="191.95" shape="601.65,308.05 601.65,500.00"/>
    </edge>
    <edge id="cs" from="c" to="s" priority="1">
        <lane id="cs_0" index="0" speed="20.00" length="191.95" shape="595.05,291.95 595.05,100.00"/>
        <lane id="cs_1" index="1" speed="20.00" length="191.95" shape="598.35,291.95 598.35,100.00"/>
    </edge>
    <edge id="cw" from="c" to="w" priority="1">
        <lane id="cw_0" index="0" speed="20.00" length="291.95" shape="591.95,304.95 300.00,304.95"/>
        <lane id="cw_1" index="1" speed="20.00" length="291.95" shape="591.95,301.65 300.00,301.65"/>
    </edge>
    <edge id="ec" from="e" to="c" priority="1">
        <lane id="ec_0" index="0" speed="20.00" length="291.95" shape="900.00,304.95 608.05,304.95"/>
        <lane id="ec_1" index="1" speed="20.00" length="291.95" shape="900.00,301.65 608.05,301.65"/>
    </edge>
    <edge id="nc" from="n" to="c" priority="1">
        <lane id="nc_0" index="0" speed="20.00" length="191.95" shape="595.05,500.00 595.05,308.05"/>
        <lane id="nc_1" index="1" speed="20.00" length="191.95" shape="598.35,500.00 598.35,308.05"/>
    </edge>
    <edge id="sc" from="s" to="c" priority="1">
        <lane id="sc_0" index="0" speed="20.00" length="191.95" shape="604.95,100.00 604.95,291.95"/>
        <lane id="sc_1" index="1" speed="20.00" length="191.95" shape="601.65,100.00 601.65,291.95"/>
    </edge>
    <edge id="wc" from="w" to="c" priority="1">
        <lane id="wc_0" index="0" speed="20.00" length="291.95" shape="300.00,295.05 591.95,295.05"/>
        <lane id="wc_1" index="1" speed="20.00" length="291.95" shape="300.00,298.35 591.95,298.35"/>
    </edge>

    <tlLogic id="c" type="static" programID="0" offset="0">
        <phase duration="50" state="rrrrrrrrrrrrrrrrrrrrrrrrrrrrrrrr"/>
    </tlLogic>
    <tlLogic id="w" type="static" programID="1" offset="0">
        <phase duration="84" state="GG"/>
        <phase duration="6" state="yy"/>
    </tlLogic>

    <junction id="c" type="traffic_light" x="600.00" y="300.00" incLanes="nc_0 nc_1 ec_0 ec_1 sc_0 sc_1 wc_0 wc_1" intLanes=":c_0_0 :c_1_0 :c_2_0 :c_3_0 :c_4_0 :c_5_0 :c_6_0 :c_7_0 :c_8_0 :c_9_0 :c_10_0 :c_11_0 :c_12_0 :c_13_0 :c_14_0 :c_15_0 :c_16_0 :c_17_0 :c_18_0 :c_19_0 :c_20_0 :c_21_0 :c_22_0 :c_23_0 :c_24_0 :c_25_0 :c_26_0 :c_27_0 :c_28_0 :c_29_0 :c_30_0 :c_31_0" shape="593.45,308.05 606.55,308.05 608.05,306.55 608.05,293.45 606.55,291.95 593.45,291.95 591.95,293.45 591.95,306.55">
        <request index="0" response="00000000000000000000000000000000" foes="10001000010001000010001000000000" cont="0"/>
        <request index="1" response="00000000000000000000000000000000" foes="01110111110011000110011000000000" cont="0"/>
        <request index="2" response="00000000001100110000000000100000" foes="01100110001100111110111000100000" cont="0"/>
        <request index="3" response="01000100001000100001000100000000" foes="01000100001000100001000100000000" cont="0"/>
        <request index="4" response="00000000000000000000000000000110" foes="10001000010001000010001000000110" cont="0"/>
        <request index="5" response="00000000000000000000000000000000" foes="01110111110011000110011000000000" cont="0"/>
        <request index="6" response="00000000001100110000000000000000" foes="01100110001100111110111000000000" cont="0"/>
        <request index="7" response="01000100001000100001000100000000" foes="01000100001000100001000100000000" cont="0"/>
        <request index="8" response="00000000001000100000000000000000" foes="01000100001000100000000010001000" cont="0"/>
        <request index="9" response="00000000011001100000000001110111" foes="11001100011001100000000001110111" cont="0"/>
        <request index="10" response="00110011011001100010000001100110" foes="00110011111011100010000001100110" cont="0"/>
        <request index="11" response="00100010000100010000000001000100" foes="00100010000100010000000001000100" cont="0"/>
        <request index="12" response="00000000001000100000011000000000" foes="01000100001000100000011010001000" cont="0"/>
        <request index="13" response="00000000011001100000000001110111" foes="11001100011001100000000001110111" cont="0"/>
        <request index="14" response="00110011011001100000000001100110" foes="00110011111011100000000001100110" cont="0"/>
        <request index="15" response="00100010000100010000000001000100" foes="00100010000100010000000001000100" cont="0"/>
        <request index="16" response="00000000000000000000000000000000" foes="00100010000000001000100001000100" cont="0"/>
        <request index="17" response="00000000000000000000000000000000" foes="01100110000000000111011111001100" cont="0"/>
        <request index="18" response="00000000001000000000000000110011" foes="11101110001000000110011000110011" cont="0"/>
        <request index="19" response="00010001000000000100010000100010" foes="00010001000000000100010000100010" cont="0"/>
        <request index="20" response="00000000000001100000000000000000" foes="00100010000001101000100001000100" cont="0"/>
        <request index="21" response="00000000000000000000000000000000" foes="01100110000000000111011111001100" cont="0"/>
        <request index="22" response="00000000000000000000000000110011" foes="11101110000000000110011000110011" cont="0"/>
        <request index="23" response="00010001000000000100010000100010" foes="00010001000000000100010000100010" cont="0"/>
        <request index="24" response="00000000000000000000000000100010" foes="00000000100010000100010000100010" cont="0"/>
        <request index="25" response="00000000011101110000000001100110" foes="00000000011101111100110001100110" cont="0"/>
        <request index="26" response="00100000011001100011001101100110" foes="00100000011001100011001111101110" cont="0"/>
        <request index="27" response="00000000010001000010001000010001" foes="00000000010001000010001000010001" cont="0"/>
        <request index="28" response="00000110000000000000000000100010" foes="00000110100010000100010000100010" cont="0"/>
        <request index="29" response="00000000011101110000000001100110" foes="00000000011101111100110001100110" cont="0"/>
        <request index="30" response="00000000011001100011001101100110" foes="00000000011001100011001111101110" cont="0"/>
        <request index="31" response="00000000010001000010001000010001" foes="00000000010001000010001000010001" cont="0"/>
    </junction>
    <junction id="e" type="priority" x="900.00" y="300.00" incLanes="ce_0 ce_1" intLanes=":e_0_0 :e_0_1" shape="900.00,300.05 900.00,293.45 900.00,299.95">
        <request index="0" response="00" foes="00" cont="0"/>
        <request index="1" response="00" foes="00" cont="0"/>
    </junction>
    <junction id="gneJ7" type="dead_end" x="-300.00" y="100.00" incLanes="" intLanes="" shape="-300.00,100.00"/>
    <junction id="n" type="priority" x="600.00" y="500.00" incLanes="cn_0 cn_1" intLanes=":n_0_0 :n_0_1" shape="599.95,500.00 606.55,500.00 600.05,500.00">
        <request index="0" response="00" foes="00" cont="0"/>
        <request index="1" response="00" foes="00" cont="0"/>
    </junction>
    <junction id="s" type="priority" x="600.00" y="100.00" incLanes="cs_0 cs_1" intLanes=":s_0_0 :s_0_1" shape="600.05,100.00 593.45,100.00 599.95,100.00">
        <request index="0" response="00" foes="00" cont="0"/>
        <request index="1" response="00" foes="00" cont="0"/>
    </junction>
    <junction id="w" type="traffic_light" x="300.00" y="300.00" incLanes="cw_0 cw_1" intLanes=":w_0_0 :w_0_1" shape="300.00,299.95 300.00,306.55 300.00,300.05">
        <request index="0" response="00" foes="00" cont="0"/>
        <request index="1" response="00" foes="00" cont="0"/>
    </junction>

    <connection from="ce" to="ec" fromLane="0" toLane="0" via=":e_0_0" dir="t" state="M"/>
    <connection from="ce" to="ec" fromLane="1" toLane="1" via=":e_0_1" dir="t" state="M"/>
    <connection from="cn" to="nc" fromLane="0" toLane="0" via=":n_0_0" dir="t" state="M"/>
    <connection from="cn" to="nc" fromLane="1" toLane="1" via=":n_0_1" dir="t" state="M"/>
    <connection from="cs" to="sc" fromLane="0" toLane="0" via=":s_0_0" dir="t" state="M"/>
    <connection from="cs" to="sc" fromLane="1" toLane="1" via=":s_0_1" dir="t" state="M"/>
    <connection from="cw" to="wc" fromLane="0" toLane="0" via=":w_0_0" tl="w" linkIndex="0" dir="t" state="o"/>
    <connection from="cw" to="wc" fromLane="1" toLane="1" via=":w_0_1" tl="w" linkIndex="1" dir="t" state="o"/>
    <connection from="ec" to="cn" fromLane="0" toLane="0" via=":c_8_0" tl="c" linkIndex="8" dir="r" state="o"/>
    <connection from="ec" to="cw" fromLane="0" toLane="0" via=":c_9_0" tl="c" linkIndex="9" dir="s" state="o"/>
    <connection from="ec" to="cs" fromLane="0" toLane="0" via=":c_10_0" tl="c" linkIndex="10" dir="l" state="o"/>
    <connection from="ec" to="ce" fromLane="0" toLane="0" via=":c_11_0" tl="c" linkIndex="11" dir="t" state="o"/>
    <connection from="ec" to="cn" fromLane="1" toLane="1" via=":c_12_0" tl="c" linkIndex="12" dir="r" state="o"/>
    <connection from="ec" to="cw" fromLane="1" toLane="1" via=":c_13_0" tl="c" linkIndex="13" dir="s" state="o"/>
    <connection from="ec" to="cs" fromLane="1" toLane="1" via=":c_14_0" tl="c" linkIndex="14" dir="l" state="o"/>
    <connection from="ec" to="ce" fromLane="1" toLane="1" via=":c_15_0" tl="c" linkIndex="15" dir="t" state="o"/>
    <connection from="nc" to="cw" fromLane="0" toLane="0" via=":c_0_0" tl="c" linkIndex="0" dir="r" state="o"/>
    <connection from="nc" to="cs" fromLane="0" toLane="0" via=":c_1_0" tl="c" linkIndex="1" dir="s" state="o"/>
    <connection from="nc" to="ce" fromLane="0" toLane="0" via=":c_2_0" tl="c" linkIndex="2" dir="l" state="o"/>
    <connection from="nc" to="cn" fromLane="0" toLane="0" via=":c_3_0" tl="c" linkIndex="3" dir="t" state="o"/>
    <connection from="nc" to="cw" fromLane="1" toLane="1" via=":c_4_0" tl="c" linkIndex="4" dir="r" state="o"/>
    <connection from="nc" to="cs" fromLane="1" toLane="1" via=":c_5_0" tl="c" linkIndex="5" dir="s" state="o"/>
    <connection from="nc" to="ce" fromLane="1" toLane="1" via=":c_6_0" tl="c" linkIndex="6" dir="l" state="o"/>
    <connection from="nc" to="cn" fromLane="1" toLane="1" via=":c_7_0" tl="c" linkIndex="7" dir="t" state="o"/>
    <connection from="sc" to="ce" fromLane="0" toLane="0" via=":c_16_0" tl="c" linkIndex="16" dir="r" state="o"/>
    <connection from="sc" to="cn" fromLane="0" toLane="0" via=":c_17_0" tl="c" linkIndex="17" dir="s" state="o"/>
    <connection from="sc" to="cw" fromLane="0" toLane="0" via=":c_18_0" tl="c" linkIndex="18" dir="l" state="o"/>
    <connection from="sc" to="cs" fromLane="0" toLane="0" via=":c_19_0" tl="c" linkIndex="19" dir="t" state="o"/>
    <connection from="sc" to="ce" fromLane="1" toLane="1" via=":c_20_0" tl="c" linkIndex="20" dir="r" state="o"/>
    <connection from="sc" to="cn" fromLane="1" toLane="1" via=":c_21_0" tl="c" linkIndex="21" dir="s" state="o"/>
    <connection from="sc" to="cw" fromLane="1" toLane="1" via=":c_22_0" tl="c" linkIndex="22" dir="l" state="o"/>
    <connection from="sc" to="cs" fromLane="1" toLane="1" via=":c_23_0" tl="c" linkIndex="23" dir="t" state="o"/>
    <connection from="wc" to="cs" fromLane="0" toLane="0" via=":c_24_0" tl="c" linkIndex="24" dir="r" state="o"/>
    <connection from="wc" to="ce" fromLane="0" toLane="0" via=":c_25_0" tl="c" linkIndex="25" dir="s" state="o"/>
    <connection from="wc" to="cn" fromLane="0" toLane="0" via=":c_26_0" tl="c" linkIndex="26" dir="l" state="o"/>
    <connection from="wc" to="cw" fromLane="0" toLane="0" via=":c_27_0" tl="c" linkIndex="27" dir="t" state="o"/>
    <connection from="wc" to="cs" fromLane="1" toLane="1" via=":c_28_0" tl="c" linkIndex="28" dir="r" state="o"/>
    <connection from="wc" to="ce" fromLane="1" toLane="1" via=":c_29_0" tl="c" linkIndex="29" dir="s" state="o"/>
    <connection from="wc" to="cn" fromLane="1" toLane="1" via=":c_30_0" tl="c" linkIndex="30" dir="l" state="o"/>
    <connection from="wc" to="cw" fromLane="1" toLane="1" via=":c_31_0" tl="c" linkIndex="31" dir="t" state="o"/>

    <connection from=":c_0" to="cw" fromLane="0" toLane="0" dir="s" state="M"/>
    <connection from=":c_1" to="cs" fromLane="0" toLane="0" dir="s" state="M"/>
    <connection from=":c_2" to="ce" fromLane="0" toLane="0" dir="s" state="M"/>
    <connection from=":c_3" to="cn" fromLane="0" toLane="0" dir="s" state="M"/>
    <connection from=":c_4" to="cw" fromLane="0" toLane="1" dir="s" state="M"/>
    <connection from=":c_5" to="cs" fromLane="0" toLane="1" dir="s" state="M"/>
    <connection from=":c_6" to="ce" fromLane="0" toLane="1" dir="s" state="M"/>
    <connection from=":c_7" to="cn" fromLane="0" toLane="1" dir="s" state="M"/>
    <connection from=":c_8" to="cn" fromLane="0" toLane="0" dir="s" state="M"/>
    <connection from=":c_9" to="cw" fromLane="0" toLane="0" dir="s" state="M"/>
    <connection from=":c_10" to="cs" fromLane="0" toLane="0" dir="s" state="M"/>
    <connection from=":c_11" to="ce" fromLane="0" toLane="0" dir="s" state="M"/>
    <connection from=":c_12" to="cn" fromLane="0" toLane="1" dir="s" state="M"/>
    <connection from=":c_13" to="cw" fromLane="0" toLane="1" dir="s" state="M"/>
    <connection from=":c_14" to="cs" fromLane="0" toLane="1" dir="s" state="M"/>
    <connection from=":c_15" to="ce" fromLane="0" toLane="1" dir="s" state="M"/>
    <connection from=":c_16" to="ce" fromLane="0" toLane="0" dir="s" state="M"/>
    <connection from=":c_17" to="cn" fromLane="0" toLane="0" dir="s" state="M"/>
    <connection from=":c_18" to="cw" fromLane="0" toLane="0" dir="s" state="M"/>
    <connection from=":c_19" to="cs" fromLane="0" toLane="0" dir="s" state="M"/>
    <connection from=":c_20" to="ce" fromLane="0" toLane="1" dir="s" state="M"/>
    <connection from=":c_21" to="cn" fromLane="0" toLane="1" dir="s" state="M"/>
    <connection from=":c_22" to="cw" fromLane="0" toLane="1" dir="s" state="M"/>
    <connection from=":c_23" to="cs" fromLane="0" toLane="1" dir="s" state="M"/>
    <connection from=":c_24" to="cs" fromLane="0" toLane="0" dir="s" state="M"/>
    <connection from=":c_25" to="ce" fromLane="0" toLane="0" dir="s" state="M"/>
    <connection from=":c_26" to="cn" fromLane="0" toLane="0" dir="s" state="M"/>
    <connection from=":c_27" to="cw" fromLane="0" toLane="0" dir="s" state="M"/>
    <connection from=":c_28" to="cs" fromLane="0" toLane="1" dir="s" state="M"/>
    <connection from=":c_29" to="ce" fromLane="0" toLane="1" dir="s" state="M"/>
    <connection from=":c_30" to="cn" fromLane="0" toLane="1" dir="s" state="M"/>
    <connection from=":c_31" to="cw" fromLane="0" toLane="1" dir="s" state="M"/>
    <connection from=":e_0" to="ec" fromLane="0" toLane="0" dir="s" state="M"/>
    <connection from=":e_0" to="ec" fromLane="1" toLane="1" dir="s" state="M"/>
    <connection from=":n_0" to="nc" fromLane="0" toLane="0" dir="s" state="M"/>
    <connection from=":n_0" to="nc" fromLane="1" toLane="1" dir="s" state="M"/>
    <connection from=":s_0" to="sc" fromLane="0" toLane="0" dir="s" state="M"/>
    <connection from=":s_0" to="sc" fromLane="1" toLane="1" dir="s" state="M"/>
    <connection from=":w_0" to="wc" fromLane="0" toLane="0" dir="s" state="M"/>
    <connection from=":w_0" to="wc" fromLane="1" toLane="1" dir="s" state="M"/>

</net>
