<routes>
    <vType accel="1.0" decel="5.0" speedDev="0.1" id="Car1" length="2.0" randomSpeed="100.0" sigma="0.0" color="1,0,0"/>
    <route id="we1" edges="wc ce ec cw wc ce ec cw wc ce ec cw wc ce ec cw wc ce ec cw"/>
    <route id="we2" edges="cw wc ce ec cw wc ce ec cw wc ce ec cw wc ce ec cw wc ce ec cw"/>
    <vehicle departSpeed="random" arrivalPos="random" departPos ="random_free" departLane="best" depart="0" id="1_veh00" route="we1" type="Car1" />
    <vehicle departSpeed="random" arrivalPos="random" departPos ="random_free" departLane="best" depart="0" id="1_veh01" route="we1" type="Car1" />
    <vehicle departSpeed="random" arrivalPos="random" departPos ="random_free" departLane="best" depart="0" id="1_veh02" route="we1" type="Car1" />
    <vehicle departSpeed="random" arrivalPos="random" departPos ="random_free" departLane="best" depart="0" id="1_veh03" route="we1" type="Car1" />
    <vehicle departSpeed="random" arrivalPos="random" departPos ="random_free" departLane="best" depart="0" id="1_veh04" route="we1" type="Car1" />
    <vehicle departSpeed="random" arrivalPos="random" departPos ="random_free" departLane="best" depart="0" id="1_veh05" route="we1" type="Car1" />
    <vehicle departSpeed="random" arrivalPos="random" departPos ="random_free" departLane="best" depart="0" id="1_veh06" route="we1" type="Car1" />
    <vehicle departSpeed="random" arrivalPos="random" departPos ="random_free" departLane="best" depart="0" id="1_veh07" route="we1" type="Car1" />
    <vehicle departSpeed="random" arrivalPos="random" departPos ="random_free" departLane="best" depart="0" id="1_veh08" route="we1" type="Car1" />
    <vehicle departSpeed="random" arrivalPos="random" departPos ="random_free" departLane="best" depart="0" id="1_veh09" route="we1" type="Car1" />
    
    <vehicle departSpeed="random" arrivalPos="random" departPos ="random_free" departLane="best" depart="0" id="1_veh10" route="we1" type="Car1" />
    <vehicle departSpeed="random" arrivalPos="random" departPos ="random_free" departLane="best" depart="0" id="1_veh11" route="we1" type="Car1" />
    <vehicle departSpeed="random" arrivalPos="random" departPos ="random_free" departLane="best" depart="0" id="1_veh12" route="we1" type="Car1" />
    <vehicle departSpeed="random" arrivalPos="random" departPos ="random_free" departLane="best" depart="0" id="1_veh13" route="we1" type="Car1" />
    <vehicle departSpeed="random" arrivalPos="random" departPos ="random_free" departLane="best" depart="0" id="1_veh14" route="we1" type="Car1" />
    <vehicle departSpeed="random" arrivalPos="random" departPos ="random_free" departLane="best" depart="0" id="1_veh15" route="we1" type="Car1" />
    <vehicle departSpeed="random" arrivalPos="random" departPos ="random_free" departLane="best" depart="0" id="1_veh16" route="we1" type="Car1" />
    <vehicle departSpeed="random" arrivalPos="random" departPos ="random_free" departLane="best" depart="0" id="1_veh17" route="we1" type="Car1" />
    <vehicle departSpeed="random" arrivalPos="random" departPos ="random_free" departLane="best" depart="0" id="1_veh18" route="we1" type="Car1" />
    <vehicle departSpeed="random" arrivalPos="random" departPos ="random_free" departLane="best" depart="0" id="1_veh19" route="we1" type="Car1" />
    
        <vehicle departSpeed="random" arrivalPos="random" departPos ="random_free" departLane="best" depart="0" id="1_veh20" route="we1" type="Car1" />
    <vehicle departSpeed="random" arrivalPos="random" departPos ="random_free" departLane="best" depart="0" id="1_veh21" route="we1" type="Car1" />
    <vehicle departSpeed="random" arrivalPos="random" departPos ="random_free" departLane="best" depart="0" id="1_veh22" route="we1" type="Car1" />
    <vehicle departSpeed="random" arrivalPos="random" departPos ="random_free" departLane="best" depart="0" id="1_veh23" route="we1" type="Car1" />
    <vehicle departSpeed="random" arrivalPos="random" departPos ="random_free" departLane="best" depart="0" id="1_veh24" route="we1" type="Car1" />
    <vehicle departSpeed="random" arrivalPos="random" departPos ="random_free" departLane="best" depart="0" id="1_veh25" route="we1" type="Car1" />
    <vehicle departSpeed="random" arrivalPos="random" departPos ="random_free" departLane="best" depart="0" id="1_veh26" route="we2" type="Car1" />
    <vehicle departSpeed="random" arrivalPos="random" departPos ="random_free" departLane="best" depart="0" id="1_veh27" route="we2" type="Car1" />
    <vehicle departSpeed="random" arrivalPos="random" departPos ="random_free" departLane="best" depart="0" id="1_veh28" route="we2" type="Car1" />
    <vehicle departSpeed="random" arrivalPos="random" departPos ="random_free" departLane="best" depart="0" id="1_veh29" route="we2" type="Car1" />
    
        <vehicle departSpeed="random" arrivalPos="random" departPos ="random_free" departLane="best" depart="0" id="1_veh30" route="we2" type="Car1" />
    <vehicle departSpeed="random" arrivalPos="random" departPos ="random_free" departLane="best" depart="0" id="1_veh31" route="we2" type="Car1" />
    <vehicle departSpeed="random" arrivalPos="random" departPos ="random_free" departLane="best" depart="0" id="1_veh32" route="we2" type="Car1" />
    <vehicle departSpeed="random" arrivalPos="random" departPos ="random_free" departLane="best" depart="0" id="1_veh33" route="we2" type="Car1" />
    <vehicle departSpeed="random" arrivalPos="random" departPos ="random_free" departLane="best" depart="0" id="1_veh34" route="we2" type="Car1" />
    <vehicle departSpeed="random" arrivalPos="random" departPos ="random_free" departLane="best" depart="0" id="1_veh35" route="we2" type="Car1" />
    <vehicle departSpeed="random" arrivalPos="random" departPos ="random_free" departLane="best" depart="0" id="1_veh36" route="we2" type="Car1" />
    <vehicle departSpeed="random" arrivalPos="random" departPos ="random_free" departLane="best" depart="0" id="1_veh37" route="we2" type="Car1" />
    <vehicle departSpeed="random" arrivalPos="random" departPos ="random_free" departLane="best" depart="0" id="1_veh38" route="we2" type="Car1" />
    <vehicle departSpeed="random" arrivalPos="random" departPos ="random_free" departLane="best" depart="0" id="1_veh39" route="we2" type="Car1" />
   
    <vehicle departSpeed="random" arrivalPos="random" departPos ="random_free" departLane="best" depart="0" id="1_veh40" route="we2" type="Car1" />
    <vehicle departSpeed="random" arrivalPos="random" departPos ="random_free" departLane="best" depart="0" id="1_veh41" route="we2" type="Car1" />
    <vehicle departSpeed="random" arrivalPos="random" departPos ="random_free" departLane="best" depart="0" id="1_veh42" route="we2" type="Car1" />
    <vehicle departSpeed="random" arrivalPos="random" departPos ="random_free" departLane="best" depart="0" id="1_veh43" route="we2" type="Car1" />
    <vehicle departSpeed="random" arrivalPos="random" departPos ="random_free" departLane="best" depart="0" id="1_veh44" route="we2" type="Car1" />
    <vehicle departSpeed="random" arrivalPos="random" departPos ="random_free" departLane="best" depart="0" id="1_veh45" route="we2" type="Car1" />
    <vehicle departSpeed="random" arrivalPos="random" departPos ="random_free" departLane="best" depart="0" id="1_veh46" route="we2" type="Car1" />
    <vehicle departSpeed="random" arrivalPos="random" departPos ="random_free" departLane="best" depart="0" id="1_veh47" route="we2" type="Car1" />
    <vehicle departSpeed="random" arrivalPos="random" departPos ="random_free" departLane="best" depart="0" id="1_veh48" route="we2" type="Car1" />
    <vehicle departSpeed="random" arrivalPos="random" departPos ="random_free" departLane="best" depart="0" id="1_veh49" route="we2" type="Car1" />


    <vType accel="1.0" decel="5.0" speedDev="0.1" id="Car2" length="2.0" randomSpeed="100.0" sigma="0.0" color="0,1,0"/>
    <route id="ew1" edges="ec cw wc ce ec cw wc ce ec cw wc ce ec cw wc ce ec cw wc ce"/>
    <route id="ew2" edges="ce ec cw wc ce ec cw wc ce ec cw wc ce ec cw wc ce ec cw wc ce"/>
    <vehicle departSpeed="random" arrivalPos="random" departPos ="random_free" departLane="best" depart="0" id="2_veh00" route="ew1" type="Car2" />
    <vehicle departSpeed="random" arrivalPos="random" departPos ="random_free" departLane="best" depart="0" id="2_veh01" route="ew1" type="Car2" />
    <vehicle departSpeed="random" arrivalPos="random" departPos ="random_free" departLane="best" depart="0" id="2_veh02" route="ew1" type="Car2" />
    <vehicle departSpeed="random" arrivalPos="random" departPos ="random_free" departLane="best" depart="0" id="2_veh03" route="ew1" type="Car2" />
    <vehicle departSpeed="random" arrivalPos="random" departPos ="random_free" departLane="best" depart="0" id="2_veh04" route="ew1" type="Car2" />
    <vehicle departSpeed="random" arrivalPos="random" departPos ="random_free" departLane="best" depart="0" id="2_veh05" route="ew1" type="Car2" />
    <vehicle departSpeed="random" arrivalPos="random" departPos ="random_free" departLane="best" depart="0" id="2_veh06" route="ew1" type="Car2" />
    <vehicle departSpeed="random" arrivalPos="random" departPos ="random_free" departLane="best" depart="0" id="2_veh07" route="ew1" type="Car2" />
    <vehicle departSpeed="random" arrivalPos="random" departPos ="random_free" departLane="best" depart="0" id="2_veh08" route="ew1" type="Car2" />
    <vehicle departSpeed="random" arrivalPos="random" departPos ="random_free" departLane="best" depart="0" id="2_veh09" route="ew1" type="Car2" />
    
    <vehicle departSpeed="random" arrivalPos="random" departPos ="random_free" departLane="best" depart="0" id="2_veh10" route="ew1" type="Car2" />
    <vehicle departSpeed="random" arrivalPos="random" departPos ="random_free" departLane="best" depart="0" id="2_veh11" route="ew1" type="Car2" />
    <vehicle departSpeed="random" arrivalPos="random" departPos ="random_free" departLane="best" depart="0" id="2_veh12" route="ew1" type="Car2" />
    <vehicle departSpeed="random" arrivalPos="random" departPos ="random_free" departLane="best" depart="0" id="2_veh13" route="ew1" type="Car2" />
    <vehicle departSpeed="random" arrivalPos="random" departPos ="random_free" departLane="best" depart="0" id="2_veh14" route="ew1" type="Car2" />
    <vehicle departSpeed="random" arrivalPos="random" departPos ="random_free" departLane="best" depart="0" id="2_veh15" route="ew1" type="Car2" />
    <vehicle departSpeed="random" arrivalPos="random" departPos ="random_free" departLane="best" depart="0" id="2_veh16" route="ew1" type="Car2" />
    <vehicle departSpeed="random" arrivalPos="random" departPos ="random_free" departLane="best" depart="0" id="2_veh17" route="ew1" type="Car2" />
    <vehicle departSpeed="random" arrivalPos="random" departPos ="random_free" departLane="best" depart="0" id="2_veh18" route="ew1" type="Car2" />
    <vehicle departSpeed="random" arrivalPos="random" departPos ="random_free" departLane="best" depart="0" id="2_veh19" route="ew1" type="Car2" />
    
    <vehicle departSpeed="random" arrivalPos="random" departPos ="random_free" departLane="best" depart="0" id="2_veh20" route="ew1" type="Car2" />
    <vehicle departSpeed="random" arrivalPos="random" departPos ="random_free" departLane="best" depart="0" id="2_veh21" route="ew1" type="Car2" />
    <vehicle departSpeed="random" arrivalPos="random" departPos ="random_free" departLane="best" depart="0" id="2_veh22" route="ew1" type="Car2" />
    <vehicle departSpeed="random" arrivalPos="random" departPos ="random_free" departLane="best" depart="0" id="2_veh23" route="ew1" type="Car2" />
    <vehicle departSpeed="random" arrivalPos="random" departPos ="random_free" departLane="best" depart="0" id="2_veh24" route="ew1" type="Car2" />
    <vehicle departSpeed="random" arrivalPos="random" departPos ="random_free" departLane="best" depart="0" id="2_veh25" route="ew1" type="Car2" />
    <vehicle departSpeed="random" arrivalPos="random" departPos ="random_free" departLane="best" depart="0" id="2_veh26" route="ew2" type="Car2" />
    <vehicle departSpeed="random" arrivalPos="random" departPos ="random_free" departLane="best" depart="0" id="2_veh27" route="ew2" type="Car2" />
    <vehicle departSpeed="random" arrivalPos="random" departPos ="random_free" departLane="best" depart="0" id="2_veh28" route="ew2" type="Car2" />
    <vehicle departSpeed="random" arrivalPos="random" departPos ="random_free" departLane="best" depart="0" id="2_veh29" route="ew2" type="Car2" />
    
        <vehicle departSpeed="random" arrivalPos="random" departPos ="random_free" departLane="best" depart="0" id="2_veh30" route="ew2" type="Car2" />
    <vehicle departSpeed="random" arrivalPos="random" departPos ="random_free" departLane="best" depart="0" id="2_veh31" route="ew2" type="Car2" />
    <vehicle departSpeed="random" arrivalPos="random" departPos ="random_free" departLane="best" depart="0" id="2_veh32" route="ew2" type="Car2" />
    <vehicle departSpeed="random" arrivalPos="random" departPos ="random_free" departLane="best" depart="0" id="2_veh33" route="ew2" type="Car2" />
    <vehicle departSpeed="random" arrivalPos="random" departPos ="random_free" departLane="best" depart="0" id="2_veh34" route="ew2" type="Car2" />
    <vehicle departSpeed="random" arrivalPos="random" departPos ="random_free" departLane="best" depart="0" id="2_veh35" route="ew2" type="Car2" />
    <vehicle departSpeed="random" arrivalPos="random" departPos ="random_free" departLane="best" depart="0" id="2_veh36" route="ew2" type="Car2" />
    <vehicle departSpeed="random" arrivalPos="random" departPos ="random_free" departLane="best" depart="0" id="2_veh37" route="ew2" type="Car2" />
    <vehicle departSpeed="random" arrivalPos="random" departPos ="random_free" departLane="best" depart="0" id="2_veh38" route="ew2" type="Car2" />
    <vehicle departSpeed="random" arrivalPos="random" departPos ="random_free" departLane="best" depart="0" id="2_veh39" route="ew2" type="Car2" />
   
    <vehicle departSpeed="random" arrivalPos="random" departPos ="random_free" departLane="best" depart="0" id="2_veh40" route="ew2" type="Car2" />
    <vehicle departSpeed="random" arrivalPos="random" departPos ="random_free" departLane="best" depart="0" id="2_veh41" route="ew2" type="Car2" />
    <vehicle departSpeed="random" arrivalPos="random" departPos ="random_free" departLane="best" depart="0" id="2_veh42" route="ew2" type="Car2" />
    <vehicle departSpeed="random" arrivalPos="random" departPos ="random_free" departLane="best" depart="0" id="2_veh43" route="ew2" type="Car2" />
    <vehicle departSpeed="random" arrivalPos="random" departPos ="random_free" departLane="best" depart="0" id="2_veh44" route="ew2" type="Car2" />
    <vehicle departSpeed="random" arrivalPos="random" departPos ="random_free" departLane="best" depart="0" id="2_veh45" route="ew2" type="Car2" />
    <vehicle departSpeed="random" arrivalPos="random" departPos ="random_free" departLane="best" depart="0" id="2_veh46" route="ew2" type="Car2" />
    <vehicle departSpeed="random" arrivalPos="random" departPos ="random_free" departLane="best" depart="0" id="2_veh47" route="ew2" type="Car2" />
    <vehicle departSpeed="random" arrivalPos="random" departPos ="random_free" departLane="best" depart="0" id="2_veh48" route="ew2" type="Car2" />
    <vehicle departSpeed="random" arrivalPos="random" departPos ="random_free" departLane="best" depart="0" id="2_veh49" route="ew2" type="Car2" />

    <vType accel="1.0" decel="5.0" speedDev="0.1" id="Car3" length="2.0" randomSpeed="100.0" sigma="0.0" color="0,0,1" />
    <route id="sn1" edges="sc cn nc cs sc cn nc cs sc cn nc cs sc cn nc cs sc cn nc cs"/>
    <route id="sn2" edges="cs sc cn nc cs sc cn nc cs sc cn nc cs sc cn nc cs sc cn nc cs"/>
    <vehicle departSpeed="random" arrivalPos="random" departPos ="random_free" departLane="best" depart="0" id="3_veh00" route="sn1" type="Car3" />
    <vehicle departSpeed="random" arrivalPos="random" departPos ="random_free" departLane="best" depart="0" id="3_veh01" route="sn1" type="Car3" />
    <vehicle departSpeed="random" arrivalPos="random" departPos ="random_free" departLane="best" depart="0" id="3_veh02" route="sn1" type="Car3" />
    <vehicle departSpeed="random" arrivalPos="random" departPos ="random_free" departLane="best" depart="0" id="3_veh03" route="sn1" type="Car3" />
    <vehicle departSpeed="random" arrivalPos="random" departPos ="random_free" departLane="best" depart="0" id="3_veh04" route="sn1" type="Car3" />
    <vehicle departSpeed="random" arrivalPos="random" departPos ="random_free" departLane="best" depart="0" id="3_veh05" route="sn1" type="Car3" />
    <vehicle departSpeed="random" arrivalPos="random" departPos ="random_free" departLane="best" depart="0" id="3_veh06" route="sn1" type="Car3" />
    <vehicle departSpeed="random" arrivalPos="random" departPos ="random_free" departLane="best" depart="0" id="3_veh07" route="sn1" type="Car3" />
    <vehicle departSpeed="random" arrivalPos="random" departPos ="random_free" departLane="best" depart="0" id="3_veh08" route="sn1" type="Car3" />
    <vehicle departSpeed="random" arrivalPos="random" departPos ="random_free" departLane="best" depart="0" id="3_veh09" route="sn1" type="Car3" />
    
    <vehicle departSpeed="random" arrivalPos="random" departPos ="random_free" departLane="best" depart="0" id="3_veh10" route="sn1" type="Car3" />
    <vehicle departSpeed="random" arrivalPos="random" departPos ="random_free" departLane="best" depart="0" id="3_veh11" route="sn1" type="Car3" />
    <vehicle departSpeed="random" arrivalPos="random" departPos ="random_free" departLane="best" depart="0" id="3_veh12" route="sn1" type="Car3" />
    <vehicle departSpeed="random" arrivalPos="random" departPos ="random_free" departLane="best" depart="0" id="3_veh13" route="sn1" type="Car3" />
    <vehicle departSpeed="random" arrivalPos="random" departPos ="random_free" departLane="best" depart="0" id="3_veh14" route="sn1" type="Car3" />
    <vehicle departSpeed="random" arrivalPos="random" departPos ="random_free" departLane="best" depart="0" id="3_veh15" route="sn1" type="Car3" />
    <vehicle departSpeed="random" arrivalPos="random" departPos ="random_free" departLane="best" depart="0" id="3_veh16" route="sn1" type="Car3" />
    <vehicle departSpeed="random" arrivalPos="random" departPos ="random_free" departLane="best" depart="0" id="3_veh17" route="sn1" type="Car3" />
    <vehicle departSpeed="random" arrivalPos="random" departPos ="random_free" departLane="best" depart="0" id="3_veh18" route="sn1" type="Car3" />
    <vehicle departSpeed="random" arrivalPos="random" departPos ="random_free" departLane="best" depart="0" id="3_veh19" route="sn1" type="Car3" />
    
    <vehicle departSpeed="random" arrivalPos="random" departPos ="random_free" departLane="best" depart="0" id="3_veh20" route="sn1" type="Car3" />
    <vehicle departSpeed="random" arrivalPos="random" departPos ="random_free" departLane="best" depart="0" id="3_veh21" route="sn1" type="Car3" />
    <vehicle departSpeed="random" arrivalPos="random" departPos ="random_free" departLane="best" depart="0" id="3_veh22" route="sn1" type="Car3" />
    <vehicle departSpeed="random" arrivalPos="random" departPos ="random_free" departLane="best" depart="0" id="3_veh23" route="sn1" type="Car3" />
    <vehicle departSpeed="random" arrivalPos="random" departPos ="random_free" departLane="best" depart="0" id="3_veh24" route="sn1" type="Car3" />
    <vehicle departSpeed="random" arrivalPos="random" departPos ="random_free" departLane="best" depart="0" id="3_veh25" route="sn1" type="Car3" />
    <vehicle departSpeed="random" arrivalPos="random" departPos ="random_free" departLane="best" depart="0" id="3_veh26" route="sn2" type="Car3" />
    <vehicle departSpeed="random" arrivalPos="random" departPos ="random_free" departLane="best" depart="0" id="3_veh27" route="sn2" type="Car3" />
    <vehicle departSpeed="random" arrivalPos="random" departPos ="random_free" departLane="best" depart="0" id="3_veh28" route="sn2" type="Car3" />
    <vehicle departSpeed="random" arrivalPos="random" departPos ="random_free" departLane="best" depart="0" id="3_veh29" route="sn2" type="Car3" />
    
    <vehicle departSpeed="random" arrivalPos="random" departPos ="random_free" departLane="best" depart="0" id="3_veh30" route="sn2" type="Car3" />
    <vehicle departSpeed="random" arrivalPos="random" departPos ="random_free" departLane="best" depart="0" id="3_veh31" route="sn2" type="Car3" />
    <vehicle departSpeed="random" arrivalPos="random" departPos ="random_free" departLane="best" depart="0" id="3_veh32" route="sn2" type="Car3" />
    <vehicle departSpeed="random" arrivalPos="random" departPos ="random_free" departLane="best" depart="0" id="3_veh33" route="sn2" type="Car3" />
    <vehicle departSpeed="random" arrivalPos="random" departPos ="random_free" departLane="best" depart="0" id="3_veh34" route="sn2" type="Car3" />
    <vehicle departSpeed="random" arrivalPos="random" departPos ="random_free" departLane="best" depart="0" id="3_veh35" route="sn2" type="Car3" />
    <vehicle departSpeed="random" arrivalPos="random" departPos ="random_free" departLane="best" depart="0" id="3_veh36" route="sn2" type="Car3" />
    <vehicle departSpeed="random" arrivalPos="random" departPos ="random_free" departLane="best" depart="0" id="3_veh37" route="sn2" type="Car3" />
    <vehicle departSpeed="random" arrivalPos="random" departPos ="random_free" departLane="best" depart="0" id="3_veh38" route="sn2" type="Car3" />
    <vehicle departSpeed="random" arrivalPos="random" departPos ="random_free" departLane="best" depart="0" id="3_veh39" route="sn2" type="Car3" />
    
    <vehicle departSpeed="random" arrivalPos="random" departPos ="random_free" departLane="best" depart="0" id="3_veh40" route="sn2" type="Car3" />
    <vehicle departSpeed="random" arrivalPos="random" departPos ="random_free" departLane="best" depart="0" id="3_veh41" route="sn2" type="Car3" />
    <vehicle departSpeed="random" arrivalPos="random" departPos ="random_free" departLane="best" depart="0" id="3_veh42" route="sn2" type="Car3" />
    <vehicle departSpeed="random" arrivalPos="random" departPos ="random_free" departLane="best" depart="0" id="3_veh43" route="sn2" type="Car3" />
    <vehicle departSpeed="random" arrivalPos="random" departPos ="random_free" departLane="best" depart="0" id="3_veh44" route="sn2" type="Car3" />
    <vehicle departSpeed="random" arrivalPos="random" departPos ="random_free" departLane="best" depart="0" id="3_veh45" route="sn2" type="Car3" />
    <vehicle departSpeed="random" arrivalPos="random" departPos ="random_free" departLane="best" depart="0" id="3_veh46" route="sn2" type="Car3" />
    <vehicle departSpeed="random" arrivalPos="random" departPos ="random_free" departLane="best" depart="0" id="3_veh47" route="sn2" type="Car3" />
    <vehicle departSpeed="random" arrivalPos="random" departPos ="random_free" departLane="best" depart="0" id="3_veh48" route="sn2" type="Car3" />
    <vehicle departSpeed="random" arrivalPos="random" departPos ="random_free" departLane="best" depart="0" id="3_veh49" route="sn2" type="Car3" />

    <vType accel="1.0" decel="5.0" speedDev="0.1" id="Car4" length="2.0" randomSpeed="100.0" sigma="0.0" color="1,1,0" />
    <route id="ns1" edges="nc cs sc cn nc cs sc cn nc cs sc cn nc cs sc cn nc cs sc cn"/>
    <route id="ns2" edges="cn nc cs sc cn nc cs sc cn nc cs sc cn nc cs sc cn nc cs sc cn"/>
    <vehicle departSpeed="random" arrivalPos="random" departPos ="random_free" departLane="best" depart="0" id="4_veh00" route="ns1" type="Car4" />
    <vehicle departSpeed="random" arrivalPos="random" departPos ="random_free" departLane="best" depart="0" id="4_veh01" route="ns1" type="Car4" />
    <vehicle departSpeed="random" arrivalPos="random" departPos ="random_free" departLane="best" depart="0" id="4_veh02" route="ns1" type="Car4" />
    <vehicle departSpeed="random" arrivalPos="random" departPos ="random_free" departLane="best" depart="0" id="4_veh03" route="ns1" type="Car4" />
    <vehicle departSpeed="random" arrivalPos="random" departPos ="random_free" departLane="best" depart="0" id="4_veh04" route="ns1" type="Car4" />
    <vehicle departSpeed="random" arrivalPos="random" departPos ="random_free" departLane="best" depart="0" id="4_veh05" route="ns1" type="Car4" />
    <vehicle departSpeed="random" arrivalPos="random" departPos ="random_free" departLane="best" depart="0" id="4_veh06" route="ns1" type="Car4" />
    <vehicle departSpeed="random" arrivalPos="random" departPos ="random_free" departLane="best" depart="0" id="4_veh07" route="ns1" type="Car4" />
    <vehicle departSpeed="random" arrivalPos="random" departPos ="random_free" departLane="best" depart="0" id="4_veh08" route="ns1" type="Car4" />
    <vehicle departSpeed="random" arrivalPos="random" departPos ="random_free" departLane="best" depart="0" id="4_veh09" route="ns1" type="Car4" />
    
    <vehicle departSpeed="random" arrivalPos="random" departPos ="random_free" departLane="best" depart="0" id="4_veh10" route="ns1" type="Car4" />
    <vehicle departSpeed="random" arrivalPos="random" departPos ="random_free" departLane="best" depart="0" id="4_veh11" route="ns1" type="Car4" />
    <vehicle departSpeed="random" arrivalPos="random" departPos ="random_free" departLane="best" depart="0" id="4_veh12" route="ns1" type="Car4" />
    <vehicle departSpeed="random" arrivalPos="random" departPos ="random_free" departLane="best" depart="0" id="4_veh13" route="ns1" type="Car4" />
    <vehicle departSpeed="random" arrivalPos="random" departPos ="random_free" departLane="best" depart="0" id="4_veh14" route="ns1" type="Car4" />
    <vehicle departSpeed="random" arrivalPos="random" departPos ="random_free" departLane="best" depart="0" id="4_veh15" route="ns1" type="Car4" />
    <vehicle departSpeed="random" arrivalPos="random" departPos ="random_free" departLane="best" depart="0" id="4_veh16" route="ns1" type="Car4" />
    <vehicle departSpeed="random" arrivalPos="random" departPos ="random_free" departLane="best" depart="0" id="4_veh17" route="ns1" type="Car4" />
    <vehicle departSpeed="random" arrivalPos="random" departPos ="random_free" departLane="best" depart="0" id="4_veh18" route="ns1" type="Car4" />
    <vehicle departSpeed="random" arrivalPos="random" departPos ="random_free" departLane="best" depart="0" id="4_veh19" route="ns1" type="Car4" />
    
    <vehicle departSpeed="random" arrivalPos="random" departPos ="random_free" departLane="best" depart="0" id="4_veh20" route="ns1" type="Car4" />
    <vehicle departSpeed="random" arrivalPos="random" departPos ="random_free" departLane="best" depart="0" id="4_veh21" route="ns1" type="Car4" />
    <vehicle departSpeed="random" arrivalPos="random" departPos ="random_free" departLane="best" depart="0" id="4_veh22" route="ns1" type="Car4" />
    <vehicle departSpeed="random" arrivalPos="random" departPos ="random_free" departLane="best" depart="0" id="4_veh23" route="ns1" type="Car4" />
    <vehicle departSpeed="random" arrivalPos="random" departPos ="random_free" departLane="best" depart="0" id="4_veh24" route="ns1" type="Car4" />
    <vehicle departSpeed="random" arrivalPos="random" departPos ="random_free" departLane="best" depart="0" id="4_veh25" route="ns1" type="Car4" />
    <vehicle departSpeed="random" arrivalPos="random" departPos ="random_free" departLane="best" depart="0" id="4_veh26" route="ns2" type="Car4" />
    <vehicle departSpeed="random" arrivalPos="random" departPos ="random_free" departLane="best" depart="0" id="4_veh27" route="ns2" type="Car4" />
    <vehicle departSpeed="random" arrivalPos="random" departPos ="random_free" departLane="best" depart="0" id="4_veh28" route="ns2" type="Car4" />
    <vehicle departSpeed="random" arrivalPos="random" departPos ="random_free" departLane="best" depart="0" id="4_veh29" route="ns2" type="Car4" />
    
    <vehicle departSpeed="random" arrivalPos="random" departPos ="random_free" departLane="best" depart="0" id="4_veh30" route="ns2" type="Car4" />
    <vehicle departSpeed="random" arrivalPos="random" departPos ="random_free" departLane="best" depart="0" id="4_veh31" route="ns2" type="Car4" />
    <vehicle departSpeed="random" arrivalPos="random" departPos ="random_free" departLane="best" depart="0" id="4_veh32" route="ns2" type="Car4" />
    <vehicle departSpeed="random" arrivalPos="random" departPos ="random_free" departLane="best" depart="0" id="4_veh33" route="ns2" type="Car4" />
    <vehicle departSpeed="random" arrivalPos="random" departPos ="random_free" departLane="best" depart="0" id="4_veh34" route="ns2" type="Car4" />
    <vehicle departSpeed="random" arrivalPos="random" departPos ="random_free" departLane="best" depart="0" id="4_veh35" route="ns2" type="Car4" />
    <vehicle departSpeed="random" arrivalPos="random" departPos ="random_free" departLane="best" depart="0" id="4_veh36" route="ns2" type="Car4" />
    <vehicle departSpeed="random" arrivalPos="random" departPos ="random_free" departLane="best" depart="0" id="4_veh37" route="ns2" type="Car4" />
    <vehicle departSpeed="random" arrivalPos="random" departPos ="random_free" departLane="best" depart="0" id="4_veh38" route="ns2" type="Car4" />
    <vehicle departSpeed="random" arrivalPos="random" departPos ="random_free" departLane="best" depart="0" id="4_veh39" route="ns2" type="Car4" />
    
    <vehicle departSpeed="random" arrivalPos="random" departPos ="random_free" departLane="best" depart="0" id="4_veh40" route="ns2" type="Car4" />
    <vehicle departSpeed="random" arrivalPos="random" departPos ="random_free" departLane="best" depart="0" id="4_veh41" route="ns2" type="Car4" />
    <vehicle departSpeed="random" arrivalPos="random" departPos ="random_free" departLane="best" depart="0" id="4_veh42" route="ns2" type="Car4" />