<routes>
    <vType accel="1.0" speedDev="0.1"  departSpeed="max" decel="5.0" id="Car1" length="2.5" maxSpeed="100.0" sigma="0.0" />    
    <route id="we" edges="wc ce"/>
    <flow id="fwe" color="0,0,1" route="we" begin="0" end= "0" number="50" type="Car1"/>

    <vType accel="1.0"  speedDev="0.1" departSpeed="max" decel="5.0" id="Car2" length="2.0" maxSpeed="80.0" sigma="0.0" />
    <route id="sn" edges="sc cn"/>
    <flow id="fsn" color="0,1,0" route="sn" begin="0" end= "0" number="50" type="Car2"/>

    <vType accel="1.0" speedDev="0.1" departSpeed="max" decel="5.0" id="Car3" length="2.0" maxSpeed="100.0" sigma="0.0" />
    <route id="ew" edges="ec cw"/>
    <flow id="few" color="0,1,1" route="ew" begin="0" end= "0" number="50" type="Car3"/>

    <vType accel="1.0" speedDev="0.1" departSpeed="max" decel="5.0" id="Car4" length="2.0" maxSpeed="80.0" sigma="0.0" />
    <route id="ns" edges="nc cs"/>
    <flow id="fns" color="1,0,0" route="ns" begin="0" end= "0" number="50" type="Car4"/>
</routes>



