<routes>
    <vType accel="1.0" decel="5.0" speedDev="0.1" id="Car1" length="2.0" maxSpeed="100.0" sigma="0.0" color="1,0,0"/>
    <route id="we" edges="wc ce ec cw wc ce ec cw wc ce ec cw wc ce ec cw wc ce ec cw"/>     
    <vehicle departSpeed="max" arrivalPos="max" departPos="random_free" departLane="best" depart="0" id="1_veh00" route="we" type="Car1" />
    <vehicle departSpeed="max" arrivalPos="max" departPos="random_free" departLane="best" depart="0" id="1_veh01" route="we" type="Car1" />
    <vehicle departSpeed="max" arrivalPos="max" departPos="random_free" departLane="best" depart="0" id="1_veh02" route="we" type="Car1" />
    <vehicle departSpeed="max" arrivalPos="max" departPos="random_free" departLane="best" depart="0" id="1_veh03" route="we" type="Car1" />
    <vehicle departSpeed="max" arrivalPos="max" departPos="random_free" departLane="best" depart="0" id="1_veh04" route="we" type="Car1" />
    <vehicle departSpeed="max" arrivalPos="max" departPos="random_free" departLane="best" depart="0" id="1_veh05" route="we" type="Car1" />
    <vehicle departSpeed="max" arrivalPos="max" departPos="random_free" departLane="best" depart="0" id="1_veh06" route="we" type="Car1" />
    <vehicle departSpeed="max" arrivalPos="max" departPos="random_free" departLane="best" depart="0" id="1_veh07" route="we" type="Car1" />
    <vehicle departSpeed="max" arrivalPos="max" departPos="random_free" departLane="best" depart="0" id="1_veh08" route="we" type="Car1" />
    <vehicle departSpeed="max" arrivalPos="max" departPos="random_free" departLane="best" depart="0" id="1_veh09" route="we" type="Car1" />
    
    <vehicle departSpeed="max" arrivalPos="max" departPos="random_free" departLane="best" depart="0" id="1_veh10" route="we" type="Car1" />
    <vehicle departSpeed="max" arrivalPos="max" departPos="random_free" departLane="best" depart="0" id="1_veh11" route="we" type="Car1" />
    <vehicle departSpeed="max" arrivalPos="max" departPos="random_free" departLane="best" depart="0" id="1_veh12" route="we" type="Car1" />
    <vehicle departSpeed="max" arrivalPos="max" departPos="random_free" departLane="best" depart="0" id="1_veh13" route="we" type="Car1" />
    <vehicle departSpeed="max" arrivalPos="max" departPos="random_free" departLane="best" depart="0" id="1_veh14" route="we" type="Car1" />
    <vehicle departSpeed="max" arrivalPos="max" departPos="random_free" departLane="best" depart="0" id="1_veh15" route="we" type="Car1" />
    <vehicle departSpeed="max" arrivalPos="max" departPos="random_free" departLane="best" depart="0" id="1_veh16" route="we" type="Car1" />
    <vehicle departSpeed="max" arrivalPos="max" departPos="random_free" departLane="best" depart="0" id="1_veh17" route="we" type="Car1" />
    <vehicle departSpeed="max" arrivalPos="max" departPos="random_free" departLane="best" depart="0" id="1_veh18" route="we" type="Car1" />
    <vehicle departSpeed="max" arrivalPos="max" departPos="random_free" departLane="best" depart="0" id="1_veh19" route="we" type="Car1" />
    
        <vehicle departSpeed="max" arrivalPos="max" departPos="random_free" departLane="best" depart="0" id="1_veh20" route="we" type="Car1" />
    <vehicle departSpeed="max" arrivalPos="max" departPos="random_free" departLane="best" depart="0" id="1_veh21" route="we" type="Car1" />
    <vehicle departSpeed="max" arrivalPos="max" departPos="random_free" departLane="best" depart="0" id="1_veh22" route="we" type="Car1" />
    <vehicle departSpeed="max" arrivalPos="max" departPos="random_free" departLane="best" depart="0" id="1_veh23" route="we" type="Car1" />
    <vehicle departSpeed="max" arrivalPos="max" departPos="random_free" departLane="best" depart="0" id="1_veh24" route="we" type="Car1" />
  

    <vType accel="1.0" decel="5.0" speedDev="0.1" id="Car2" length="2.0" maxSpeed="100.0" sigma="0.0" color="0,1,0"/>
    <route id="ew" edges="ec cw wc ce ec cw wc ce ec cw wc ce ec cw wc ce ec cw wc ce"/>
    <vehicle departSpeed="max" arrivalPos="max" departPos="random_free" departLane="best" depart="0" id="2_veh00" route="ew" type="Car2" />
    <vehicle departSpeed="max" arrivalPos="max" departPos="random_free" departLane="best" depart="0" id="2_veh01" route="ew" type="Car2" />
    <vehicle departSpeed="max" arrivalPos="max" departPos="random_free" departLane="best" depart="0" id="2_veh02" route="ew" type="Car2" />
    <vehicle departSpeed="max" arrivalPos="max" departPos="random_free" departLane="best" depart="0" id="2_veh03" route="ew" type="Car2" />
    <vehicle departSpeed="max" arrivalPos="max" departPos="random_free" departLane="best" depart="0" id="2_veh04" route="ew" type="Car2" />
    <vehicle departSpeed="max" arrivalPos="max" departPos="random_free" departLane="best" depart="0" id="2_veh05" route="ew" type="Car2" />
    <vehicle departSpeed="max" arrivalPos="max" departPos="random_free" departLane="best" depart="0" id="2_veh06" route="ew" type="Car2" />
    <vehicle departSpeed="max" arrivalPos="max" departPos="random_free" departLane="best" depart="0" id="2_veh07" route="ew" type="Car2" />
    <vehicle departSpeed="max" arrivalPos="max" departPos="random_free" departLane="best" depart="0" id="2_veh08" route="ew" type="Car2" />
    <vehicle departSpeed="max" arrivalPos="max" departPos="random_free" departLane="best" depart="0" id="2_veh09" route="ew" type="Car2" />
    
    <vehicle departSpeed="max" arrivalPos="max" departPos="random_free" departLane="best" depart="0" id="2_veh10" route="ew" type="Car2" />
    <vehicle departSpeed="max" arrivalPos="max" departPos="random_free" departLane="best" depart="0" id="2_veh11" route="ew" type="Car2" />
    <vehicle departSpeed="max" arrivalPos="max" departPos="random_free" departLane="best" depart="0" id="2_veh12" route="ew" type="Car2" />
    <vehicle departSpeed="max" arrivalPos="max" departPos="random_free" departLane="best" depart="0" id="2_veh13" route="ew" type="Car2" />
    <vehicle departSpeed="max" arrivalPos="max" departPos="random_free" departLane="best" depart="0" id="2_veh14" route="ew" type="Car2" />
    <vehicle departSpeed="max" arrivalPos="max" departPos="random_free" departLane="best" depart="0" id="2_veh15" route="ew" type="Car2" />
    <vehicle departSpeed="max" arrivalPos="max" departPos="random_free" departLane="best" depart="0" id="2_veh16" route="ew" type="Car2" />
    <vehicle departSpeed="max" arrivalPos="max" departPos="random_free" departLane="best" depart="0" id="2_veh17" route="ew" type="Car2" />
    <vehicle departSpeed="max" arrivalPos="max" departPos="random_free" departLane="best" depart="0" id="2_veh18" route="ew" type="Car2" />
    <vehicle departSpeed="max" arrivalPos="max" departPos="random_free" departLane="best" depart="0" id="2_veh19" route="ew" type="Car2" />
    
    <vehicle departSpeed="max" arrivalPos="max" departPos="random_free" departLane="best" depart="0" id="2_veh20" route="ew" type="Car2" />
    <vehicle departSpeed="max" arrivalPos="max" departPos="random_free" departLane="best" depart="0" id="2_veh21" route="ew" type="Car2" />
    <vehicle departSpeed="max" arrivalPos="max" departPos="random_free" departLane="best" depart="0" id="2_veh22" route="ew" type="Car2" />
    <vehicle departSpeed="max" arrivalPos="max" departPos="random_free" departLane="best" depart="0" id="2_veh23" route="ew" type="Car2" />
    <vehicle departSpeed="max" arrivalPos="max" departPos="random_free" departLane="best" depart="0" id="2_veh24" route="ew" type="Car2" />

    <vType accel="1.0" decel="5.0" speedDev="0.1" id="Car3" length="2.0" maxSpeed="100.0" sigma="0.0" color="0,0,1" />
    <route id="sn" edges="sc cn nc cs sc cn nc cs sc cn nc cs sc cn nc cs sc cn nc cs"/>
    <vehicle departSpeed="max" arrivalPos="max" departPos="random_free" departLane="best" depart="0" id="3_veh00" route="sn" type="Car3" />
    <vehicle departSpeed="max" arrivalPos="max" departPos="random_free" departLane="best" depart="0" id="3_veh01" route="sn" type="Car3" />
    <vehicle departSpeed="max" arrivalPos="max" departPos="random_free" departLane="best" depart="0" id="3_veh02" route="sn" type="Car3" />
    <vehicle departSpeed="max" arrivalPos="max" departPos="random_free" departLane="best" depart="0" id="3_veh03" route="sn" type="Car3" />
    <vehicle departSpeed="max" arrivalPos="max" departPos="random_free" departLane="best" depart="0" id="3_veh04" route="sn" type="Car3" />
    <vehicle departSpeed="max" arrivalPos="max" departPos="random_free" departLane="best" depart="0" id="3_veh05" route="sn" type="Car3" />
    <vehicle departSpeed="max" arrivalPos="max" departPos="random_free" departLane="best" depart="0" id="3_veh06" route="sn" type="Car3" />
    <vehicle departSpeed="max" arrivalPos="max" departPos="random_free" departLane="best" depart="0" id="3_veh07" route="sn" type="Car3" />
    <vehicle departSpeed="max" arrivalPos="max" departPos="random_free" departLane="best" depart="0" id="3_veh08" route="sn" type="Car3" />
    <vehicle departSpeed="max" arrivalPos="max" departPos="random_free" departLane="best" depart="0" id="3_veh09" route="sn" type="Car3" />
    
    <vehicle departSpeed="max" arrivalPos="max" departPos="random_free" departLane="best" depart="0" id="3_veh10" route="sn" type="Car3" />
    <vehicle departSpeed="max" arrivalPos="max" departPos="random_free" departLane="best" depart="0" id="3_veh11" route="sn" type="Car3" />
    <vehicle departSpeed="max" arrivalPos="max" departPos="random_free" departLane="best" depart="0" id="3_veh12" route="sn" type="Car3" />
    <vehicle departSpeed="max" arrivalPos="max" departPos="random_free" departLane="best" depart="0" id="3_veh13" route="sn" type="Car3" />
    <vehicle departSpeed="max" arrivalPos="max" departPos="random_free" departLane="best" depart="0" id="3_veh14" route="sn" type="Car3" />
    <vehicle departSpeed="max" arrivalPos="max" departPos="random_free" departLane="best" depart="0" id="3_veh15" route="sn" type="Car3" />
    <vehicle departSpeed="max" arrivalPos="max" departPos="random_free" departLane="best" depart="0" id="3_veh16" route="sn" type="Car3" />
    <vehicle departSpeed="max" arrivalPos="max" departPos="random_free" departLane="best" depart="0" id="3_veh17" route="sn" type="Car3" />
    <vehicle departSpeed="max" arrivalPos="max" departPos="random_free" departLane="best" depart="0" id="3_veh18" route="sn" type="Car3" />
    <vehicle departSpeed="max" arrivalPos="max" departPos="random_free" departLane="best" depart="0" id="3_veh19" route="sn" type="Car3" />
    
    <vehicle departSpeed="max" arrivalPos="max" departPos="random_free" departLane="best" depart="0" id="3_veh20" route="sn" type="Car3" />
    <vehicle departSpeed="max" arrivalPos="max" departPos="random_free" departLane="best" depart="0" id="3_veh21" route="sn" type="Car3" />
    <vehicle departSpeed="max" arrivalPos="max" departPos="random_free" departLane="best" depart="0" id="3_veh22" route="sn" type="Car3" />
    <vehicle departSpeed="max" arrivalPos="max" departPos="random_free" departLane="best" depart="0" id="3_veh23" route="sn" type="Car3" />
    <vehicle departSpeed="max" arrivalPos="max" departPos="random_free" departLane="best" depart="0" id="3_veh24" route="sn" type="Car3" />

    <vType accel="1.0" decel="5.0" speedDev="0.1" id="Car4" length="2.0" maxSpeed="100.0" sigma="0.0" color="1,1,0" />
    <route id="ns" edges="nc cs sc cn nc cs sc cn nc cs sc cn nc cs sc cn nc cs sc cn"/>
    <vehicle departSpeed="max" arrivalPos="max" departPos="random_free" departLane="best" depart="0" id="4_veh00" route="ns" type="Car4" />
    <vehicle departSpeed="max" arrivalPos="max" departPos="random_free" departLane="best" depart="0" id="4_veh01" route="ns" type="Car4" />
    <vehicle departSpeed="max" arrivalPos="max" departPos="random_free" departLane="best" depart="0" id="4_veh02" route="ns" type="Car4" />
    <vehicle departSpeed="max" arrivalPos="max" departPos="random_free" departLane="best" depart="0" id="4_veh03" route="ns" type="Car4" />
    <vehicle departSpeed="max" arrivalPos="max" departPos="random_free" departLane="best" depart="0" id="4_veh04" route="ns" type="Car4" />
    <vehicle departSpeed="max" arrivalPos="max" departPos="random_free" departLane="best" depart="0" id="4_veh05" route="ns" type="Car4" />
    <vehicle departSpeed="max" arrivalPos="max" departPos="random_free" departLane="best" depart="0" id="4_veh06" route="ns" type="Car4" />
    <vehicle departSpeed="max" arrivalPos="max" departPos="random_free" departLane="best" depart="0" id="4_veh07" route="ns" type="Car4" />
    <vehicle departSpeed="max" arrivalPos="max" departPos="random_free" departLane="best" depart="0" id="4_veh08" route="ns" type="Car4" />
    <vehicle departSpeed="max" arrivalPos="max" departPos="random_free" departLane="best" depart="0" id="4_veh09" route="ns" type="Car4" />
    
    <vehicle departSpeed="max" arrivalPos="max" departPos="random_free" departLane="best" depart="0" id="4_veh10" route="ns" type="Car4" />
    <vehicle departSpeed="max" arrivalPos="max" departPos="random_free" departLane="best" depart="0" id="4_veh11" route="ns" type="Car4" />
    <vehicle departSpeed="max" arrivalPos="max" departPos="random_free" departLane="best" depart="0" id="4_veh12" route="ns" type="Car4" />
    <vehicle departSpeed="max" arrivalPos="max" departPos="random_free" departLane="best" depart="0" id="4_veh13" route="ns" type="Car4" />
    <vehicle departSpeed="max" arrivalPos="max" departPos="random_free" departLane="best" depart="0" id="4_veh14" route="ns" type="Car4" />
    <vehicle departSpeed="max" arrivalPos="max" departPos="random_free" departLane="best" depart="0" id="4_veh15" route="ns" type="Car4" />
    <vehicle departSpeed="max" arrivalPos="max" departPos="random_free" departLane="best" depart="0" id="4_veh16" route="ns" type="Car4" />
    <vehicle departSpeed="max" arrivalPos="max" departPos="random_free" departLane="best" depart="0" id="4_veh17" route="ns" type="Car4" />
    <vehicle departSpeed="max" arrivalPos="max" departPos="random_free" departLane="best" depart="0" id="4_veh18" route="ns" type="Car4" />
    <vehicle departSpeed="max" arrivalPos="max" departPos="random_free" departLane="best" depart="0" id="4_veh19" route="ns" type="Car4" />
    
    <vehicle departSpeed="max" arrivalPos="max" departPos="random_free" departLane="best" depart="0" id="4_veh20" route="ns" type="Car4" />
    <vehicle departSpeed="max" arrivalPos="max" departPos="random_free" departLane="best" depart="0" id="4_veh21" route="ns" type="Car4" />
    <vehicle departSpeed="max" arrivalPos="max" departPos="random_free" departLane="best" depart="0" id="4_veh22" route="ns" type="Car4" />
    <vehicle departSpeed="max" arrivalPos="max" departPos="random_free" departLane="best" depart="0" id="4_veh23" route="ns" type="Car4" />
    <vehicle departSpeed="max" arrivalPos="max" departPos="random_free" departLane="best" depart="0" id="4_veh24" route="ns" type="Car4" />

</routes>

